data/raw/dsuite_networks_scaled_v1.1/spd_s/master_scaled_new.dss
clear

New Circuit.ckt_10148922 basekv=0.415 pu=1.01 bus1=sourcebus basefreq=50 phases=3 Angle=0 ISC3=99999999999 Isc1=99999999999

!impedance copied from EU LV test feeder
new line.sourceZ bus1=SourceBus bus2=9108515 phases=3 linecode=Cable_230V_185_AL length=0.393 units=m


!redirect transformers_spd_s.dss

redirect linecodes_dsuite_scaled.dss
redirect lines_lbs_spd_s_scaled.dss
redirect loads_spd_s.dss

redirect statcom_locations_gen.dss

batchedit load.load* kw=1.0 kvar=0.0

calcv

solve

set normvmaxpu=1.10
set normvminpu=0.90
set marktransformers=yes
